[TITLE]

[JUNCTIONS]
 2                                    30.0000
 3                                    30.0000
 4                                    30.0000
 5                                    30.0000
 6                                    30.0000
 7                                    30.0000
 8                                    30.0000
 9                                    30.0000
 10                                   30.0000
 11                                   30.0000
 12                                   30.0000
 13                                   30.0000
 14                                   30.0000
 15                                   30.0000
 16                                   30.0000
 17                                   30.0000
 18                                   30.0000
 19                                   30.0000
 20                                   30.0000
 21                                   30.0000
 22                                   30.0000
 23                                   30.0000
 24                                   30.0000
 25                                   30.0000
 26                                   30.0000
 27                                   30.0000
 28                                   30.0000
 29                                   30.0000
 30                                   30.0000
 31                                   30.0000
 32                                   30.0000

[RESERVOIRS]
 1                                   100.0000 

[TANKS]

[PIPES]
 1                               1                               2                                   100.0000    1016.0000     130.0000       0.0000 
 2                               2                               3                                  1350.0000    1016.0000     130.0000       0.0000 
 3                               3                               4                                   900.0000    1016.0000     130.0000       0.0000 
 4                               4                               5                                  1150.0000    1016.0000     130.0000       0.0000 
 5                               5                               6                                  1450.0000    1016.0000     130.0000       0.0000 
 6                               6                               7                                   450.0000    1016.0000     130.0000       0.0000 
 7                               7                               8                                   850.0000    1016.0000     130.0000       0.0000 
 8                               8                               9                                   850.0000    1016.0000     130.0000       0.0000 
 9                               9                               10                                  800.0000    1016.0000     130.0000       0.0000 
 10                              10                              11                                  950.0000     762.0000     130.0000       0.0000 
 11                              11                              12                                 1200.0000     762.0000     130.0000       0.0000 
 12                              12                              13                                 3500.0000     609.6000     130.0000       0.0000 
 13                              10                              14                                  800.0000     406.4000     130.0000       0.0000 
 14                              14                              15                                  500.0000     406.4000     130.0000       0.0000 
 15                              15                              16                                  550.0000     304.8000     130.0000       0.0000 
 16                              17                              16                                 2730.0000     406.4000     130.0000       0.0000 
 17                              17                              18                                 1750.0000     508.0000     130.0000       0.0000 
 18                              18                              19                                  800.0000     609.6000     130.0000       0.0000 
 19                              19                              3                                   400.0000     609.6000     130.0000       0.0000 
 20                              3                               20                                 2200.0000    1016.0000     130.0000       0.0000 
 21                              20                              21                                 1500.0000     508.0000     130.0000       0.0000 
 22                              21                              22                                  500.0000     304.8000     130.0000       0.0000 
 23                              20                              23                                 2650.0000    1016.0000     130.0000       0.0000 
 24                              23                              24                                 1230.0000     762.0000     130.0000       0.0000 
 25                              24                              25                                 1300.0000     762.0000     130.0000       0.0000 
 26                              26                              25                                  850.0000     508.0000     130.0000       0.0000 
 27                              27                              26                                  300.0000     304.8000     130.0000       0.0000 
 28                              16                              27                                  750.0000     304.8000     130.0000       0.0000 
 29                              23                              28                                 1500.0000     406.4000     130.0000       0.0000 
 30                              28                              29                                 2000.0000     406.4000     130.0000       0.0000 
 31                              29                              30                                 1600.0000     304.8000     130.0000       0.0000 
 32                              30                              31                                  150.0000     304.8000     130.0000       0.0000 
 33                              32                              31                                  860.0000     406.4000     130.0000       0.0000 
 34                              25                              32                                  950.0000     508.0000     130.0000       0.0000 

[PUMPS]

[VALVES]

[DEMANDS]
 2                                   247.220000 
 3                                   236.110000 
 4                                    36.110000 
 5                                   201.390000 
 6                                   279.170000 
 7                                   375.000000 
 8                                   152.780000 
 9                                   145.830000 
 10                                  145.830000 
 11                                  138.890000 
 12                                  155.560000 
 13                                  261.110000 
 14                                  170.830000 
 15                                   77.780000 
 16                                   86.110000 
 17                                  240.280000 
 18                                  373.610000 
 19                                   16.670000 
 20                                  354.170000 
 21                                  258.330000 
 22                                  134.720000 
 23                                  290.280000 
 24                                  227.780000 
 25                                   47.220000 
 26                                  250.000000 
 27                                  102.780000 
 28                                   80.560000 
 29                                  100.000000 
 30                                  100.000000 
 31                                   29.170000 
 32                                  223.610000 

[EMITTERS]

[STATUS]

[PATTERNS]

[CURVES]

[CONTROLS]

[QUALITY]

[SOURCES]

[MIXING]

[REACTIONS]
 ORDER  BULK            1.00
 ORDER  WALL            1
 ORDER  TANK            1.00
 GLOBAL BULK            0.000000
 GLOBAL WALL            0.000000

[ENERGY]
 GLOBAL EFFIC        75.0000
 DEMAND CHARGE       0.0000

[TIMES]
 DURATION            0:00:00
 HYDRAULIC TIMESTEP  1:00:00
 QUALITY TIMESTEP    0:05:00
 REPORT TIMESTEP     1:00:00
 REPORT START        0:00:00
 PATTERN TIMESTEP    1:00:00
 PATTERN START       0:00:00
 RULE TIMESTEP       0:06:00
 START CLOCKTIME     0:00:00
 STATISTIC           NONE

[OPTIONS]
 UNITS               LPS
 PRESSURE            METERS
 HEADLOSS            H-W
 UNBALANCED          CONTINUE 10
 QUALITY             NONE
 DEMAND MULTIPLIER   1.0000
 EMITTER EXPONENT    0.5000
 VISCOSITY           1.000000
 DIFFUSIVITY         1.000000
 SPECIFIC GRAVITY    1.000000
 TRIALS              40
 ACCURACY            0.00001000
 TOLERANCE           0.01000000
 CHECKFREQ           2
 MAXCHECK            10
 DAMPLIMIT           0.00000000

[REPORT]
 PAGESIZE            0
 STATUS              NO
 SUMMARY             NO
 ENERGY              NO
 MESSAGES            YES
 NODES               NONE
 LINKS               NONE
 Elevation           NO
 Demand              PRECISION 2
 Head                PRECISION 2
 Pressure            PRECISION 2
 Quality             NO
 Length              NO
 Diameter            NO
 Flow                PRECISION 2
 Velocity            PRECISION 2
 Headloss            PRECISION 2
 Quality             NO
 State               NO
 Setting             NO
 Reaction            NO



[COORDINATES]
 2                                  3896.830078    9031.750000
 3                                  3896.830078    7904.759766
 4                                  3071.429932    7873.020020
 5                                  2706.350098    6761.899902
 6                                  2309.520020    5714.290039
 7                                  2055.560059    5142.859863
 8                                  1611.109985    4111.109863
 9                                  1214.290039    3206.350098
 10                                  833.330017    2269.840088
 11                                  -39.680000    2238.100098
 12                                -1420.630005    2238.100098
 13                                -4293.649902    2269.840088
 14                                 1865.079956    2190.479980
 15                                 2595.239990    2063.489990
 16                                 3468.250000    1841.270020
 17                                 3833.330078    4174.600098
 18                                 3896.830078    5746.029785
 19                                 3896.830078    7206.350098
 20                                 5928.569824    7920.629883
 21                                 7214.290039    8000.000000
 22                                 8325.400391    7904.759766
 23                                 5912.700195    5539.680176
 24                                 5611.109863    4047.620117
 25                                 5198.410156    2253.969971
 26                                 4769.839844    2031.750000
 27                                 4150.790039    1857.140015
 28                                 7690.479980    5412.700195
 29                                 7357.140137    3761.899902
 30                                 7208.330078     716.669983
 31                                 6753.970215    1095.239990
 32                                 6166.669922    1857.140015
 1                                  3891.669922    9616.669922

[TAGS]

[VERTICES]
;Link            	X-Coord         	Y-Coord

[LABELS]
;X-Coord           Y-Coord          Label & Anchor Node

[BACKDROP]
 DIMENSIONS     	0.00            	0.00            	10000.00        	10000.00        
 UNITS          	Ninguno
 FILE           	
 OFFSET         	0.00            	0.00            



[END]